Version 4
SHEET 1 1048 884
WIRE -912 -144 -976 -144
WIRE -784 -144 -912 -144
WIRE -304 -144 -784 -144
WIRE -16 -144 -304 -144
WIRE 464 -144 -16 -144
WIRE -304 -48 -304 -144
WIRE -16 -48 -16 -144
WIRE 464 -48 464 -144
WIRE -976 -32 -976 -144
WIRE -784 0 -784 -144
WIRE -304 0 -304 -32
WIRE -16 0 -16 -32
WIRE 464 0 464 -32
WIRE -224 32 -256 32
WIRE -64 32 -224 32
WIRE 416 32 192 32
WIRE 464 48 464 32
WIRE -16 64 -16 48
WIRE 192 64 192 32
WIRE 192 64 -16 64
WIRE -304 96 -304 48
WIRE -224 96 -224 32
WIRE -224 96 -304 96
WIRE 208 96 144 96
WIRE 464 112 464 48
WIRE 672 112 464 112
WIRE 704 112 672 112
WIRE 208 128 208 96
WIRE 704 144 704 112
WIRE -976 160 -976 48
WIRE -304 240 -304 96
WIRE -16 240 -16 64
WIRE -464 256 -624 256
WIRE 208 256 208 208
WIRE 704 304 704 208
WIRE -656 320 -656 112
WIRE -624 320 -624 256
WIRE -624 320 -656 320
WIRE -464 320 -464 256
WIRE -400 320 -464 320
WIRE -352 320 -400 320
WIRE -304 320 -304 288
WIRE -16 320 -16 288
WIRE 80 320 32 320
WIRE 144 320 144 96
WIRE 144 320 80 320
WIRE -304 384 -304 336
WIRE -144 384 -304 384
WIRE -16 384 -16 336
WIRE -16 384 -144 384
WIRE -784 400 -784 80
WIRE -672 400 -784 400
WIRE -784 432 -784 400
WIRE -144 432 -144 384
WIRE 464 432 464 112
WIRE -784 512 -784 480
WIRE -672 512 -672 400
WIRE -672 512 -736 512
WIRE -368 512 -672 512
WIRE -192 512 -368 512
WIRE -144 512 -144 480
WIRE 464 512 464 480
WIRE -368 560 -368 512
WIRE 416 560 416 512
WIRE 416 560 -368 560
WIRE -784 592 -784 528
WIRE -144 592 -144 528
WIRE -144 592 -784 592
WIRE 464 592 464 528
WIRE 464 592 -144 592
WIRE -144 608 -144 592
WIRE -144 768 -144 688
FLAG 704 304 0
FLAG -656 112 0
FLAG -976 160 0
FLAG -144 768 0
FLAG 672 112 OUT
FLAG -144 592 SS
FLAG 80 320 Non-Inv
FLAG -400 320 Inv
FLAG -912 -144 DD
FLAG 208 256 0
SYMBOL pmos4 416 -48 R0
SYMATTR InstName M1
SYMATTR Value2 l=180n w=4u
SYMBOL pmos4 -64 -48 R0
SYMATTR InstName M2
SYMATTR Value2 l=180n w=2u
SYMBOL pmos4 -256 -48 M0
SYMATTR InstName M3
SYMATTR Value2 l=180n w=2u
SYMBOL nmos4 416 432 R0
SYMATTR InstName M4
SYMATTR Value2 l=180n w=4u
SYMBOL nmos4 32 240 M0
SYMATTR InstName M5
SYMATTR Value2 l=180n w=2u
SYMBOL nmos4 -736 432 M0
SYMATTR InstName M6
SYMATTR Value2 l=180n w=4u
SYMBOL nmos4 -192 432 R0
SYMATTR InstName M7
SYMATTR Value2 l=180n w=4u
SYMBOL nmos4 -352 240 R0
SYMATTR InstName M8
SYMATTR Value2 l=180n w=2u
SYMBOL cap 688 144 R0
SYMATTR InstName C2
SYMATTR Value 10p
SYMBOL voltage -976 -48 R0
WINDOW 123 0 0 Left 0
WINDOW 39 0 0 Left 0
SYMATTR InstName V2
SYMATTR Value 1.8
SYMBOL voltage -144 592 R0
WINDOW 123 0 0 Left 0
WINDOW 39 0 0 Left 0
SYMATTR InstName V3
SYMATTR Value -1.8
SYMBOL current -784 0 R0
WINDOW 123 0 0 Left 0
WINDOW 39 0 0 Left 0
SYMATTR InstName I1
SYMATTR Value 100µ
SYMBOL voltage 208 112 R0
WINDOW 123 0 0 Left 0
WINDOW 39 0 0 Left 0
SYMATTR InstName V1
SYMATTR Value SINE(0 10m 10k)
TEXT 896 296 Left 2 !.tran 0.5m
TEXT 792 264 Left 2 !;ac dec 100 1 100meg
